 &MOM_input_nml
         output_directory = './',
         input_filename = 'r'
         restart_input_dir = 'INPUT/',
         restart_output_dir = 'RESTART/',
         parameter_filename = 'MOM_input',
                              'MOM_override' /


 &fms_nml
    domains_stack_size=250000
/


 &particles_nml
   really_debug = .false.
   traj_write_hrs = 24
   traj_sample_hrs = 24
   do_unit_tests = .true.
/